Version 4
SHEET 1 7784 1356
WIRE 640 -144 -208 -144
WIRE 768 -144 704 -144
WIRE -16 -80 -48 -80
WIRE 128 -80 64 -80
WIRE 80 16 80 0
WIRE 128 32 128 -80
WIRE 128 32 96 32
WIRE 384 32 128 32
WIRE 640 32 384 32
WIRE 768 32 768 -144
WIRE 768 32 704 32
WIRE -208 48 -208 -144
WIRE -208 48 -384 48
WIRE -144 48 -208 48
WIRE -48 48 -48 -80
WIRE -48 48 -64 48
WIRE 32 48 -48 48
WIRE 880 48 880 -16
WIRE 1024 48 1024 -16
WIRE 128 64 96 64
WIRE 768 64 768 32
WIRE 128 80 128 64
WIRE 80 96 80 80
WIRE 384 112 384 32
WIRE -208 144 -208 48
WIRE -176 144 -208 144
WIRE 16 144 -96 144
WIRE 880 160 880 128
WIRE 1024 160 1024 128
WIRE 560 192 528 192
WIRE 768 192 768 144
WIRE 768 192 624 192
WIRE -208 240 -208 144
WIRE -176 240 -208 240
WIRE 16 240 16 144
WIRE 16 240 -112 240
WIRE 192 240 160 240
WIRE 384 240 384 192
WIRE 384 240 256 240
WIRE -384 256 -384 48
WIRE -96 320 -96 304
WIRE 272 320 272 304
WIRE 656 320 656 304
WIRE -208 336 -208 240
WIRE -112 336 -208 336
WIRE 16 336 16 240
WIRE 32 336 32 320
WIRE 32 336 16 336
WIRE 48 336 32 336
WIRE 160 336 160 240
WIRE 160 336 128 336
WIRE 256 336 160 336
WIRE 384 336 384 240
WIRE 400 336 400 320
WIRE 400 336 384 336
WIRE 416 336 400 336
WIRE 528 336 528 192
WIRE 528 336 496 336
WIRE 640 336 528 336
WIRE 16 352 16 336
WIRE 16 352 -48 352
WIRE 384 352 384 336
WIRE 384 352 320 352
WIRE 752 352 752 336
WIRE 752 352 704 352
WIRE 768 352 768 192
WIRE 768 352 752 352
WIRE 880 352 768 352
WIRE -112 368 -208 368
WIRE 256 368 224 368
WIRE 640 368 608 368
WIRE -384 384 -384 336
WIRE -96 400 -96 384
WIRE 272 400 272 384
WIRE 656 400 656 384
WIRE 1136 416 976 416
WIRE 1408 416 1376 416
WIRE 1552 416 1488 416
WIRE 1024 496 1024 480
WIRE -208 512 -208 368
WIRE 224 512 224 368
WIRE 224 512 -208 512
WIRE 608 512 608 368
WIRE 608 512 224 512
WIRE 976 512 976 416
WIRE 1008 512 976 512
WIRE 1136 528 1136 416
WIRE 1136 528 1072 528
WIRE 1232 528 1136 528
WIRE 1376 528 1376 416
WIRE 1376 528 1312 528
WIRE -384 544 -384 464
WIRE 224 544 224 512
WIRE 880 544 880 352
WIRE 1008 544 880 544
WIRE 1440 544 1440 528
WIRE 1376 560 1376 528
WIRE 1424 560 1376 560
WIRE 1024 576 1024 560
WIRE 1552 576 1552 416
WIRE 1552 576 1488 576
WIRE 1632 576 1552 576
WIRE 1424 592 1376 592
WIRE 1232 624 1200 624
WIRE 1376 624 1376 592
WIRE 1376 624 1312 624
WIRE 1440 624 1440 608
WIRE 624 640 -224 640
WIRE 752 640 688 640
WIRE 1136 640 976 640
WIRE 1376 688 1376 624
WIRE -32 704 -64 704
WIRE 112 704 48 704
WIRE 1024 720 1024 704
WIRE 976 736 976 640
WIRE 1008 736 976 736
WIRE 1136 752 1136 640
WIRE 1136 752 1072 752
WIRE 1200 752 1200 624
WIRE 1200 752 1136 752
WIRE 1008 768 880 768
WIRE 64 800 64 784
WIRE 1024 800 1024 784
WIRE 112 816 112 704
WIRE 112 816 80 816
WIRE 368 816 112 816
WIRE 624 816 368 816
WIRE 752 816 752 640
WIRE 752 816 688 816
WIRE 1376 816 1376 768
WIRE -224 832 -224 640
WIRE -224 832 -400 832
WIRE -160 832 -224 832
WIRE -64 832 -64 704
WIRE -64 832 -80 832
WIRE 16 832 -64 832
WIRE 112 848 80 848
WIRE 752 848 752 816
WIRE 112 864 112 848
WIRE 64 880 64 864
WIRE 368 896 368 816
WIRE -224 928 -224 832
WIRE -192 928 -224 928
WIRE 0 928 -112 928
WIRE 544 992 512 992
WIRE 656 992 608 992
WIRE 752 992 752 928
WIRE 752 992 720 992
WIRE -224 1024 -224 928
WIRE -192 1024 -224 1024
WIRE 0 1024 0 928
WIRE 0 1024 -128 1024
WIRE 176 1024 144 1024
WIRE 368 1024 368 976
WIRE 368 1024 240 1024
WIRE -400 1040 -400 832
WIRE -112 1104 -112 1088
WIRE 256 1104 256 1088
WIRE -224 1120 -224 1024
WIRE -128 1120 -224 1120
WIRE 0 1120 0 1024
WIRE 16 1120 16 1104
WIRE 16 1120 0 1120
WIRE 32 1120 16 1120
WIRE 144 1120 144 1024
WIRE 144 1120 112 1120
WIRE 240 1120 144 1120
WIRE 368 1120 368 1024
WIRE 384 1120 384 1104
WIRE 384 1120 368 1120
WIRE 400 1120 384 1120
WIRE 512 1120 512 992
WIRE 512 1120 480 1120
WIRE 624 1120 512 1120
WIRE 0 1136 0 1120
WIRE 0 1136 -64 1136
WIRE 368 1136 368 1120
WIRE 368 1136 304 1136
WIRE 736 1136 736 1120
WIRE 736 1136 688 1136
WIRE 752 1136 752 992
WIRE 752 1136 736 1136
WIRE 880 1136 880 768
WIRE 880 1136 752 1136
WIRE -128 1152 -224 1152
WIRE 240 1152 208 1152
WIRE 624 1152 592 1152
WIRE -400 1168 -400 1120
WIRE -112 1184 -112 1168
WIRE 256 1184 256 1168
WIRE 640 1184 640 1168
WIRE -224 1296 -224 1152
WIRE 208 1296 208 1152
WIRE 208 1296 -224 1296
WIRE 592 1296 592 1152
WIRE 592 1296 208 1296
WIRE -400 1328 -400 1248
WIRE 208 1328 208 1296
FLAG 880 160 0
FLAG 1024 160 0
FLAG 880 -16 Vee
FLAG 1024 -16 Vcc
FLAG -96 304 Vcc
FLAG 272 304 Vcc
FLAG 656 304 Vcc
FLAG 80 0 Vcc
FLAG 272 400 Vee
FLAG 656 400 Vee
FLAG 80 96 Vee
FLAG -96 400 Vee
FLAG 224 544 0
FLAG 128 80 0
FLAG 752 336 x1
FLAG 400 320 y1
FLAG 32 320 z1
FLAG -384 544 0
FLAG -112 1088 Vcc
FLAG 256 1088 Vcc
FLAG 640 1104 Vcc
FLAG 64 784 Vcc
FLAG 256 1184 Vee
FLAG 640 1184 Vee
FLAG 64 880 Vee
FLAG -112 1184 Vee
FLAG 208 1328 0
FLAG 112 864 0
FLAG 736 1120 x2
FLAG 384 1104 y2
FLAG 16 1104 z2
FLAG -400 1328 0
FLAG 1024 576 Vee
FLAG 1024 800 Vee
FLAG 1440 624 Vee
FLAG 1024 480 Vcc
FLAG 1024 704 Vcc
FLAG 1440 528 Vcc
FLAG 1376 816 0
FLAG 1632 576 Output
IOPIN 1632 576 Out
SYMBOL res -80 160 M270
WINDOW 0 32 56 VTop 2
WINDOW 3 0 56 VBottom 2
SYMATTR InstName R1
SYMATTR Value 1.9k
SYMBOL res 144 320 R90
WINDOW 0 0 56 VBottom 2
WINDOW 3 32 56 VTop 2
SYMATTR InstName R2
SYMATTR Value 1k
SYMBOL res 512 320 R90
WINDOW 0 0 56 VBottom 2
WINDOW 3 32 56 VTop 2
SYMATTR InstName R3
SYMATTR Value 1k
SYMBOL res 784 160 R180
WINDOW 0 -39 78 Left 2
WINDOW 3 -35 46 Left 2
SYMATTR InstName R4
SYMATTR Value 1k
SYMBOL res 400 208 R180
WINDOW 0 36 76 Left 2
WINDOW 3 36 40 Left 2
SYMATTR InstName R5
SYMATTR Value 1k
SYMBOL res -48 32 R90
WINDOW 0 0 56 VBottom 2
WINDOW 3 32 56 VTop 2
SYMATTR InstName R6
SYMATTR Value 1k
SYMBOL cap -112 224 R90
WINDOW 0 0 32 VBottom 2
WINDOW 3 32 32 VTop 2
SYMATTR InstName C1
SYMATTR Value 0.1µ
SYMBOL cap 256 224 R90
WINDOW 0 0 32 VBottom 2
WINDOW 3 32 32 VTop 2
SYMATTR InstName C2
SYMATTR Value 0.1µ
SYMBOL cap 624 176 R90
WINDOW 0 0 32 VBottom 2
WINDOW 3 32 32 VTop 2
SYMATTR InstName C3
SYMATTR Value 0.1µ
SYMBOL voltage 880 32 R0
WINDOW 123 0 0 Left 0
WINDOW 39 0 0 Left 0
SYMATTR InstName V1
SYMATTR Value -12
SYMBOL voltage 1024 32 R0
WINDOW 123 0 0 Left 0
WINDOW 39 0 0 Left 0
SYMATTR InstName V2
SYMATTR Value 12
SYMBOL diode 704 16 R90
WINDOW 0 0 32 VBottom 2
WINDOW 3 32 32 VTop 2
SYMATTR InstName D1
SYMATTR Value D1N4001
SYMBOL voltage -384 368 R0
WINDOW 123 0 0 Left 0
WINDOW 39 0 0 Left 0
SYMATTR InstName V3
SYMATTR Value 1
SYMBOL diode 640 -160 M90
WINDOW 0 0 32 VBottom 2
WINDOW 3 32 32 VTop 2
SYMATTR InstName D2
SYMATTR Value D1N4001
SYMBOL res 80 -96 R90
WINDOW 0 0 56 VBottom 2
WINDOW 3 32 56 VTop 2
SYMATTR InstName R7
SYMATTR Value 1k
SYMBOL res -400 240 R0
SYMATTR InstName R8
SYMATTR Value 1k
SYMBOL res -96 944 M270
WINDOW 0 32 56 VTop 2
WINDOW 3 0 56 VBottom 2
SYMATTR InstName R9
SYMATTR Value 1.9k
SYMBOL res 128 1104 R90
WINDOW 0 0 56 VBottom 2
WINDOW 3 32 56 VTop 2
SYMATTR InstName R10
SYMATTR Value 1k
SYMBOL res 496 1104 R90
WINDOW 0 0 56 VBottom 2
WINDOW 3 32 56 VTop 2
SYMATTR InstName R11
SYMATTR Value 1k
SYMBOL res 768 944 R180
WINDOW 0 -54 78 Left 2
WINDOW 3 -39 40 Left 2
SYMATTR InstName R12
SYMATTR Value 1k
SYMBOL res 384 992 R180
WINDOW 0 36 76 Left 2
WINDOW 3 36 40 Left 2
SYMATTR InstName R13
SYMATTR Value 1k
SYMBOL res -64 816 R90
WINDOW 0 0 56 VBottom 2
WINDOW 3 32 56 VTop 2
SYMATTR InstName R14
SYMATTR Value 1k
SYMBOL cap -128 1008 R90
WINDOW 0 0 32 VBottom 2
WINDOW 3 32 32 VTop 2
SYMATTR InstName C4
SYMATTR Value 0.1µ
SYMBOL cap 240 1008 R90
WINDOW 0 0 32 VBottom 2
WINDOW 3 32 32 VTop 2
SYMATTR InstName C5
SYMATTR Value 0.1µ
SYMBOL cap 608 976 R90
WINDOW 0 0 32 VBottom 2
WINDOW 3 32 32 VTop 2
SYMATTR InstName C6
SYMATTR Value 0.2µ
SYMBOL diode 688 800 R90
WINDOW 0 0 32 VBottom 2
WINDOW 3 32 32 VTop 2
SYMATTR InstName D3
SYMATTR Value D1N4001
SYMBOL voltage -400 1152 R0
WINDOW 123 0 0 Left 0
WINDOW 39 0 0 Left 0
SYMATTR InstName V6
SYMATTR Value 1
SYMBOL diode 624 624 M90
WINDOW 0 0 32 VBottom 2
WINDOW 3 32 32 VTop 2
SYMATTR InstName D4
SYMATTR Value D1N4001
SYMBOL res 64 688 R90
WINDOW 0 0 56 VBottom 2
WINDOW 3 32 56 VTop 2
SYMATTR InstName R15
SYMATTR Value 1k
SYMBOL res -416 1024 R0
SYMATTR InstName R16
SYMATTR Value 1k
SYMBOL res 1328 512 R90
WINDOW 0 0 56 VBottom 2
WINDOW 3 32 56 VTop 2
SYMATTR InstName R17
SYMATTR Value 1k
SYMBOL res 1328 608 R90
WINDOW 0 0 56 VBottom 2
WINDOW 3 32 56 VTop 2
SYMATTR InstName R18
SYMATTR Value 1k
SYMBOL res 1360 672 R0
SYMATTR InstName R19
SYMATTR Value 1k
SYMBOL res 1504 400 R90
WINDOW 0 0 56 VBottom 2
WINDOW 3 32 56 VTop 2
SYMATTR InstName R20
SYMATTR Value 1k
SYMBOL Opamps\\LT1351 -80 352 R0
SYMATTR InstName U1
SYMBOL Opamps\\LT1351 288 352 R0
SYMATTR InstName U2
SYMBOL Opamps\\LT1351 672 352 R0
SYMATTR InstName U3
SYMBOL Opamps\\LT1351 64 48 M0
SYMATTR InstName U4
SYMBOL Opamps\\LT1351 -96 1136 R0
SYMATTR InstName U5
SYMBOL Opamps\\LT1351 272 1136 R0
SYMATTR InstName U6
SYMBOL Opamps\\LT1351 656 1136 R0
WINDOW 3 23 30 Left 2
SYMATTR InstName U7
SYMBOL Opamps\\LT1351 48 832 M0
SYMATTR InstName U8
SYMBOL Opamps\\LT1351 1040 528 R0
SYMATTR InstName U9
SYMBOL Opamps\\LT1351 1040 752 R0
SYMATTR InstName U10
SYMBOL Opamps\\LT1351 1456 576 R0
SYMATTR InstName U11
SYMBOL cap 720 976 R90
WINDOW 0 0 32 VBottom 2
WINDOW 3 32 32 VTop 2
SYMATTR InstName C7
SYMATTR Value 0.2µ
TEXT 888 272 Left 2 !.model D1N4001 D IS=403E-12 RS=73.5E-3 N=1.57 CJO=52.8P VJ=0.627\n+M=0.272 BV=50 IBV=10U TT=5.05E-6
TEXT 1136 112 Left 2 !.tran 0 60m 0 1u
TEXT 1760 560 Left 2 ;log10(abs(V(Output))/2)/(1000*log10(2))
TEXT 1760 608 Left 2 ;ln(abs(V(Output))/2)/1000
TEXT 1136 72 Left 2 ;.tran 0 100m 0 1u
TEXT 1136 152 Left 2 !.ic  V(x1)=-1.5979735V V(x2)=-1.5979735V V(y1)=30.618183uV V(y2)=30.618183uV V(z1)=10.599607uV V(z2)=10.599607uV
