Version 4
SHEET 1 2604 1004
WIRE -1168 -32 -1168 -64
WIRE -1168 -32 -1312 -32
WIRE -1104 -32 -1168 -32
WIRE -976 -32 -976 -64
WIRE -976 -32 -1024 -32
WIRE -848 -32 -976 -32
WIRE -544 -32 -848 -32
WIRE -848 32 -848 -32
WIRE -768 32 -848 32
WIRE -624 32 -688 32
WIRE -544 32 -544 -32
WIRE -464 32 -544 32
WIRE -336 32 -384 32
WIRE -1312 64 -1312 -32
WIRE -1168 64 -1168 -32
WIRE -976 64 -976 -32
WIRE -800 128 -800 112
WIRE -496 128 -496 112
WIRE -848 144 -848 32
WIRE -816 144 -848 144
WIRE -544 144 -544 32
WIRE -512 144 -544 144
WIRE -624 160 -624 32
WIRE -624 160 -752 160
WIRE -336 160 -336 32
WIRE -336 160 -448 160
WIRE -816 176 -848 176
WIRE -512 176 -544 176
WIRE -800 208 -800 192
WIRE -496 208 -496 192
WIRE -1312 224 -1312 144
WIRE -1168 224 -1168 128
WIRE -976 224 -976 128
WIRE -848 288 -848 176
WIRE -768 288 -848 288
WIRE -624 288 -624 160
WIRE -624 288 -688 288
WIRE -544 288 -544 176
WIRE -464 288 -544 288
WIRE -336 288 -336 160
WIRE -336 288 -384 288
WIRE -848 304 -848 288
WIRE -544 304 -544 288
WIRE -848 416 -848 384
WIRE -544 416 -544 384
WIRE -1232 528 -1232 496
WIRE -1232 528 -1328 528
WIRE -1200 528 -1232 528
WIRE -1088 528 -1120 528
WIRE -992 528 -992 496
WIRE -992 528 -1008 528
WIRE -864 528 -992 528
WIRE -560 528 -864 528
WIRE -864 592 -864 528
WIRE -784 592 -864 592
WIRE -640 592 -704 592
WIRE -560 592 -560 528
WIRE -480 592 -560 592
WIRE -336 592 -400 592
WIRE -1328 624 -1328 528
WIRE -1232 624 -1232 528
WIRE -992 624 -992 528
WIRE -816 688 -816 672
WIRE -512 688 -512 672
WIRE -864 704 -864 592
WIRE -832 704 -864 704
WIRE -560 704 -560 592
WIRE -528 704 -560 704
WIRE -640 720 -640 592
WIRE -640 720 -768 720
WIRE -336 720 -336 592
WIRE -336 720 -464 720
WIRE -832 736 -864 736
WIRE -528 736 -560 736
WIRE -1328 768 -1328 704
WIRE -1232 768 -1232 688
WIRE -816 768 -816 752
WIRE -512 768 -512 752
WIRE -992 784 -992 688
WIRE -256 784 -256 720
WIRE -112 784 -112 720
WIRE -864 848 -864 736
WIRE -784 848 -864 848
WIRE -640 848 -640 720
WIRE -640 848 -704 848
WIRE -560 848 -560 736
WIRE -480 848 -560 848
WIRE -336 848 -336 720
WIRE -336 848 -400 848
WIRE -864 864 -864 848
WIRE -560 864 -560 848
WIRE -256 896 -256 864
WIRE -112 896 -112 864
WIRE -864 976 -864 944
WIRE -560 976 -560 944
FLAG -256 896 0
FLAG -112 896 0
FLAG -256 720 Vee
FLAG -112 720 Vcc
FLAG -800 112 Vee
FLAG -800 208 Vcc
FLAG -848 416 0
FLAG -1168 224 0
FLAG -976 224 0
FLAG -496 112 Vee
FLAG -496 208 Vcc
FLAG -544 416 0
FLAG -1312 224 0
FLAG -816 672 Vee
FLAG -816 768 Vcc
FLAG -864 976 0
FLAG -1232 768 0
FLAG -992 784 0
FLAG -512 672 Vee
FLAG -512 768 Vcc
FLAG -560 976 0
FLAG -1328 768 0
FLAG -976 -64 A
FLAG -992 496 B
FLAG -1232 496 D
FLAG -1168 -64 C
SYMBOL voltage -256 768 R0
WINDOW 123 0 0 Left 0
WINDOW 39 0 0 Left 0
SYMATTR InstName V1
SYMATTR Value -9
SYMBOL voltage -112 768 R0
WINDOW 123 0 0 Left 0
WINDOW 39 0 0 Left 0
SYMATTR InstName V2
SYMATTR Value 9
SYMBOL res -672 16 R90
WINDOW 0 0 56 VBottom 2
WINDOW 3 32 56 VTop 2
SYMATTR InstName R1
SYMATTR Value 22k
SYMBOL res -672 272 R90
WINDOW 0 0 56 VBottom 2
WINDOW 3 32 56 VTop 2
SYMATTR InstName R2
SYMATTR Value 22k
SYMBOL res -832 400 R180
WINDOW 0 36 76 Left 2
WINDOW 3 36 40 Left 2
SYMATTR InstName R3
SYMATTR Value 3.3k
SYMBOL res -1008 -48 R90
WINDOW 0 0 56 VBottom 2
WINDOW 3 32 56 VTop 2
SYMATTR InstName R7
SYMATTR Value 1.8k
SYMBOL cap -992 64 R0
SYMATTR InstName C1
SYMATTR Value 10n
SYMBOL cap -1184 64 R0
SYMATTR InstName C2
SYMATTR Value 100n
SYMBOL res -368 16 R90
WINDOW 0 0 56 VBottom 2
WINDOW 3 32 56 VTop 2
SYMATTR InstName R4
SYMATTR Value 220
SYMBOL res -368 272 R90
WINDOW 0 0 56 VBottom 2
WINDOW 3 32 56 VTop 2
SYMATTR InstName R5
SYMATTR Value 220
SYMBOL res -528 400 R180
WINDOW 0 36 76 Left 2
WINDOW 3 36 40 Left 2
SYMATTR InstName R6
SYMATTR Value 2.2k
SYMBOL Opamps\\LT1351 -784 160 M180
WINDOW 3 35 19 Left 2
SYMATTR InstName U1
SYMBOL Opamps\\LT1351 -480 160 M180
WINDOW 3 34 17 Left 2
SYMATTR InstName U2
SYMBOL ind -1296 48 M0
SYMATTR InstName L1
SYMATTR Value 18m
SYMBOL res -688 576 R90
WINDOW 0 0 56 VBottom 2
WINDOW 3 32 56 VTop 2
SYMATTR InstName R8
SYMATTR Value 22k
SYMBOL res -688 832 R90
WINDOW 0 0 56 VBottom 2
WINDOW 3 32 56 VTop 2
SYMATTR InstName R9
SYMATTR Value 22k
SYMBOL res -848 960 R180
WINDOW 0 36 76 Left 2
WINDOW 3 36 40 Left 2
SYMATTR InstName R10
SYMATTR Value 3.3k
SYMBOL res -1104 512 R90
WINDOW 0 0 56 VBottom 2
WINDOW 3 32 56 VTop 2
SYMATTR InstName R14
SYMATTR Value 1.1k
SYMBOL cap -1008 624 R0
SYMATTR InstName C3
SYMATTR Value 10n
SYMBOL cap -1248 624 R0
SYMATTR InstName C4
SYMATTR Value 100n
SYMBOL res -384 576 R90
WINDOW 0 0 56 VBottom 2
WINDOW 3 32 56 VTop 2
SYMATTR InstName R11
SYMATTR Value 220
SYMBOL res -384 832 R90
WINDOW 0 0 56 VBottom 2
WINDOW 3 32 56 VTop 2
SYMATTR InstName R12
SYMATTR Value 220
SYMBOL res -544 960 R180
WINDOW 0 36 76 Left 2
WINDOW 3 36 40 Left 2
SYMATTR InstName R13
SYMATTR Value 2.2k
SYMBOL Opamps\\LT1351 -800 720 M180
WINDOW 3 33 20 Left 2
SYMATTR InstName U3
SYMBOL Opamps\\LT1351 -496 720 M180
WINDOW 3 33 20 Left 2
SYMATTR InstName U4
SYMBOL ind -1312 608 M0
SYMATTR InstName L2
SYMATTR Value 18m
SYMBOL res -992 512 R90
WINDOW 0 0 56 VBottom 2
WINDOW 3 32 56 VTop 2
SYMATTR InstName R15
SYMATTR Value 0.7k
TEXT -32 800 Left 2 !.tran 0 50m 0 0.1u
TEXT -32 848 Left 2 !.ic V(A)=52.502946uV V(B)=52.502946uV V(C)=29.168286pV V(D)=29.168286pV I(L1)=29.168287nA I(L2)=29.168287nA
