Version 4
SHEET 1 7200 1776
WIRE 464 -528 -672 -528
WIRE -240 -464 -496 -464
WIRE 80 -464 -160 -464
WIRE -112 -368 -144 -368
WIRE 80 -368 80 -464
WIRE 80 -368 -48 -368
WIRE 256 -368 224 -368
WIRE 464 -368 464 -528
WIRE 464 -368 320 -368
WIRE -496 -272 -496 -464
WIRE -480 -272 -496 -272
WIRE -272 -272 -400 -272
WIRE -144 -272 -144 -368
WIRE -112 -272 -144 -272
WIRE 80 -272 80 -368
WIRE 80 -272 -32 -272
WIRE 224 -272 224 -368
WIRE 256 -272 224 -272
WIRE 464 -272 464 -368
WIRE 464 -272 336 -272
WIRE -400 -160 -400 -176
WIRE -672 -144 -672 -528
WIRE -624 -144 -672 -144
WIRE -496 -144 -496 -272
WIRE -496 -144 -544 -144
WIRE -416 -144 -496 -144
WIRE -48 -144 -48 -160
WIRE -272 -128 -272 -272
WIRE -272 -128 -352 -128
WIRE -240 -128 -272 -128
WIRE -144 -128 -144 -272
WIRE -144 -128 -160 -128
WIRE -64 -128 -144 -128
WIRE 336 -128 336 -144
WIRE -416 -112 -448 -112
WIRE 80 -112 80 -272
WIRE 80 -112 0 -112
WIRE 96 -112 96 -128
WIRE 96 -112 80 -112
WIRE 128 -112 96 -112
WIRE 224 -112 224 -272
WIRE 224 -112 208 -112
WIRE 320 -112 224 -112
WIRE -448 -96 -448 -112
WIRE -64 -96 -96 -96
WIRE 464 -96 464 -272
WIRE 464 -96 384 -96
WIRE 480 -96 480 -112
WIRE 480 -96 464 -96
WIRE -400 -80 -400 -96
WIRE -96 -80 -96 -96
WIRE 320 -80 288 -80
WIRE -48 -64 -48 -80
WIRE 288 -64 288 -80
WIRE 336 -48 336 -64
WIRE 608 -48 608 -112
WIRE 752 -48 752 -112
WIRE 880 -48 880 -112
WIRE -672 0 -672 -144
WIRE -64 48 -144 48
WIRE 80 48 0 48
WIRE 608 64 608 32
WIRE 752 64 752 32
WIRE 880 64 880 32
WIRE -448 80 -528 80
WIRE -272 80 -368 80
WIRE -144 160 -144 48
WIRE -112 160 -144 160
WIRE 80 160 80 48
WIRE 80 160 -32 160
WIRE 736 240 576 240
WIRE 1008 240 976 240
WIRE 1152 240 1088 240
WIRE -400 256 -400 240
WIRE -672 272 -672 80
WIRE -624 272 -672 272
WIRE -528 272 -528 80
WIRE -528 272 -560 272
WIRE -416 272 -528 272
WIRE -48 272 -48 256
WIRE -272 288 -272 80
WIRE -272 288 -352 288
WIRE -240 288 -272 288
WIRE -144 288 -144 160
WIRE -144 288 -160 288
WIRE -64 288 -144 288
WIRE -416 304 -448 304
WIRE 80 304 80 160
WIRE 80 304 0 304
WIRE 112 304 112 288
WIRE 112 304 80 304
WIRE 128 304 112 304
WIRE 224 304 224 -112
WIRE 224 304 208 304
WIRE -448 320 -448 304
WIRE -64 320 -96 320
WIRE 624 320 624 304
WIRE -400 336 -400 320
WIRE -96 336 -96 320
WIRE 576 336 576 240
WIRE 608 336 576 336
WIRE -48 352 -48 336
WIRE 736 352 736 240
WIRE 736 352 672 352
WIRE 832 352 736 352
WIRE 976 352 976 240
WIRE 976 352 912 352
WIRE 464 368 464 -96
WIRE 608 368 464 368
WIRE 1040 368 1040 352
WIRE -672 384 -672 272
WIRE 976 384 976 352
WIRE 1024 384 976 384
WIRE 624 400 624 384
WIRE 1152 400 1152 240
WIRE 1152 400 1088 400
WIRE 1232 400 1152 400
WIRE 1024 416 976 416
WIRE 832 448 800 448
WIRE 976 448 976 416
WIRE 976 448 912 448
WIRE 1040 448 1040 432
WIRE 736 464 576 464
WIRE -672 512 -672 464
WIRE 976 512 976 448
WIRE 624 544 624 528
WIRE 576 560 576 464
WIRE 608 560 576 560
WIRE 736 576 736 464
WIRE 736 576 672 576
WIRE 800 576 800 448
WIRE 800 576 736 576
WIRE 608 592 464 592
WIRE 464 624 464 592
WIRE 464 624 -672 624
WIRE 624 624 624 608
WIRE 976 640 976 592
WIRE -240 688 -496 688
WIRE 80 688 -160 688
WIRE -112 784 -144 784
WIRE 80 784 80 688
WIRE 80 784 -48 784
WIRE 320 784 224 784
WIRE 464 784 464 624
WIRE 464 784 384 784
WIRE -496 880 -496 688
WIRE -480 880 -496 880
WIRE -272 880 -400 880
WIRE -144 880 -144 784
WIRE -112 880 -144 880
WIRE 80 880 80 784
WIRE 80 880 -32 880
WIRE 224 880 224 784
WIRE 256 880 224 880
WIRE 464 880 464 784
WIRE 464 880 336 880
WIRE -400 992 -400 976
WIRE -672 1008 -672 624
WIRE -624 1008 -672 1008
WIRE -496 1008 -496 880
WIRE -496 1008 -544 1008
WIRE -416 1008 -496 1008
WIRE -48 1008 -48 992
WIRE -272 1024 -272 880
WIRE -272 1024 -352 1024
WIRE -240 1024 -272 1024
WIRE -144 1024 -144 880
WIRE -144 1024 -160 1024
WIRE -64 1024 -144 1024
WIRE 336 1024 336 1008
WIRE -416 1040 -448 1040
WIRE 80 1040 80 880
WIRE 80 1040 0 1040
WIRE 96 1040 96 1024
WIRE 96 1040 80 1040
WIRE 128 1040 96 1040
WIRE 224 1040 224 880
WIRE 224 1040 208 1040
WIRE 320 1040 224 1040
WIRE -448 1056 -448 1040
WIRE -64 1056 -96 1056
WIRE 464 1056 464 880
WIRE 464 1056 384 1056
WIRE 480 1056 480 1040
WIRE 480 1056 464 1056
WIRE -400 1072 -400 1056
WIRE -96 1072 -96 1056
WIRE 320 1072 288 1072
WIRE -48 1088 -48 1072
WIRE 288 1088 288 1072
WIRE 336 1104 336 1088
WIRE -672 1152 -672 1008
WIRE -96 1216 -144 1216
WIRE 80 1216 -32 1216
WIRE -496 1248 -528 1248
WIRE -384 1248 -416 1248
WIRE -272 1248 -304 1248
WIRE -144 1312 -144 1216
WIRE -112 1312 -144 1312
WIRE 80 1312 80 1216
WIRE 80 1312 -32 1312
WIRE -400 1408 -400 1392
WIRE -672 1424 -672 1232
WIRE -624 1424 -672 1424
WIRE -528 1424 -528 1248
WIRE -528 1424 -560 1424
WIRE -416 1424 -528 1424
WIRE -48 1424 -48 1408
WIRE -272 1440 -272 1248
WIRE -272 1440 -352 1440
WIRE -240 1440 -272 1440
WIRE -144 1440 -144 1312
WIRE -144 1440 -160 1440
WIRE -64 1440 -144 1440
WIRE -416 1456 -448 1456
WIRE 80 1456 80 1312
WIRE 80 1456 0 1456
WIRE 96 1456 96 1440
WIRE 96 1456 80 1456
WIRE 128 1456 96 1456
WIRE 224 1456 224 1040
WIRE 224 1456 208 1456
WIRE -448 1472 -448 1456
WIRE -64 1472 -96 1472
WIRE -400 1488 -400 1472
WIRE -96 1488 -96 1472
WIRE -48 1504 -48 1488
WIRE -672 1536 -672 1424
WIRE -672 1664 -672 1616
FLAG -400 -176 Vcc
FLAG -48 -160 Vcc
FLAG 336 -144 Vcc
FLAG -48 -64 Vdd
FLAG 336 -48 Vdd
FLAG -400 -80 Vdd
FLAG 608 64 0
FLAG 752 64 0
FLAG 608 -112 Vcc
FLAG 752 -112 Vdd
FLAG -400 240 Vcc
FLAG -400 336 Vdd
FLAG -48 256 Vcc
FLAG -48 352 Vdd
FLAG 880 64 0
FLAG 880 -112 Vee
FLAG -448 -96 0
FLAG -96 -80 0
FLAG 288 -64 0
FLAG -448 320 0
FLAG -96 336 0
FLAG -672 512 Vee
FLAG 624 400 Vdd
FLAG 624 624 Vdd
FLAG 1040 448 Vdd
FLAG 624 304 Vcc
FLAG 624 528 Vcc
FLAG 1040 352 Vcc
FLAG 976 640 0
FLAG 1232 400 Output
IOPIN 1232 400 Out
FLAG -400 976 Vcc
FLAG -48 992 Vcc
FLAG 336 1008 Vcc
FLAG -48 1088 Vdd
FLAG 336 1104 Vdd
FLAG -400 1072 Vdd
FLAG -400 1392 Vcc
FLAG -400 1488 Vdd
FLAG -48 1408 Vcc
FLAG -48 1504 Vdd
FLAG -448 1056 0
FLAG -96 1072 0
FLAG 288 1088 0
FLAG -448 1472 0
FLAG -96 1488 0
FLAG -672 1664 Vee
FLAG 480 -112 x1
FLAG 96 -128 y1
FLAG 112 288 z1
FLAG 480 1040 x2
FLAG 96 1024 y2
FLAG 96 1440 z2
SYMBOL res -528 -128 M270
WINDOW 0 32 56 VTop 2
WINDOW 3 0 56 VBottom 2
SYMATTR InstName R1
SYMATTR Value 10k
SYMBOL res -384 -288 R90
WINDOW 0 0 56 VBottom 2
WINDOW 3 32 56 VTop 2
SYMATTR InstName R2
SYMATTR Value 10k
SYMBOL res -144 -144 R90
WINDOW 0 0 56 VBottom 2
WINDOW 3 32 56 VTop 2
SYMATTR InstName R3
SYMATTR Value 100k
SYMBOL res -16 -288 R90
WINDOW 0 0 56 VBottom 2
WINDOW 3 32 56 VTop 2
SYMATTR InstName R4
SYMATTR Value 5Meg
SYMBOL res -144 -480 R90
WINDOW 0 0 56 VBottom 2
WINDOW 3 32 56 VTop 2
SYMATTR InstName R5
SYMATTR Value 50k
SYMBOL res 224 -128 R90
WINDOW 0 0 56 VBottom 2
WINDOW 3 32 56 VTop 2
SYMATTR InstName R6
SYMATTR Value 200k
SYMBOL cap -48 -384 R90
WINDOW 0 0 32 VBottom 2
WINDOW 3 32 32 VTop 2
SYMATTR InstName C1
SYMATTR Value 1n
SYMBOL cap 320 -384 R90
WINDOW 0 0 32 VBottom 2
WINDOW 3 32 32 VTop 2
SYMATTR InstName C2
SYMATTR Value 1n
SYMBOL cap 0 32 R90
WINDOW 0 0 32 VBottom 2
WINDOW 3 32 32 VTop 2
SYMATTR InstName C3
SYMATTR Value 1n
SYMBOL diode -624 256 M90
WINDOW 0 0 32 VBottom 2
WINDOW 3 32 32 VTop 2
SYMATTR InstName D1
SYMATTR Value D1N4001
SYMBOL voltage 608 -64 R0
WINDOW 123 0 0 Left 0
WINDOW 39 0 0 Left 0
SYMATTR InstName V1
SYMATTR Value 9
SYMBOL voltage 752 -64 R0
WINDOW 123 0 0 Left 0
WINDOW 39 0 0 Left 0
SYMATTR InstName V2
SYMATTR Value -9
SYMBOL Opamps\\LT1351 -384 -128 R0
SYMATTR InstName U1
SYMBOL Opamps\\LT1351 -32 -112 R0
SYMATTR InstName U2
SYMBOL Opamps\\LT1351 352 -96 R0
SYMATTR InstName U3
SYMBOL Opamps\\LT1351 -384 288 R0
SYMATTR InstName U4
SYMBOL Opamps\\LT1351 -32 304 R0
WINDOW 3 23 64 Left 2
SYMATTR InstName U5
SYMBOL voltage 880 -64 R0
WINDOW 123 0 0 Left 0
WINDOW 39 0 0 Left 0
SYMATTR InstName V3
SYMATTR Value -15
SYMBOL res 352 -288 R90
WINDOW 0 0 56 VBottom 2
WINDOW 3 32 56 VTop 2
SYMATTR InstName R7
SYMATTR Value 2Meg
SYMBOL res -352 64 R90
WINDOW 0 0 56 VBottom 2
WINDOW 3 32 56 VTop 2
SYMATTR InstName R8
SYMATTR Value 150k
SYMBOL res -144 272 R90
WINDOW 0 0 56 VBottom 2
WINDOW 3 32 56 VTop 2
SYMATTR InstName R9
SYMATTR Value 100k
SYMBOL res -16 144 R90
WINDOW 0 0 56 VBottom 2
WINDOW 3 32 56 VTop 2
SYMATTR InstName R10
SYMATTR Value 100k
SYMBOL res 224 288 R90
WINDOW 0 0 56 VBottom 2
WINDOW 3 32 56 VTop 2
SYMATTR InstName R11
SYMATTR Value 100k
SYMBOL res -688 96 M180
WINDOW 0 36 76 Left 2
WINDOW 3 36 40 Left 2
SYMATTR InstName R12
SYMATTR Value 10k
SYMBOL res -688 480 M180
WINDOW 0 36 76 Left 2
WINDOW 3 36 40 Left 2
SYMATTR InstName R13
SYMATTR Value 68k
SYMBOL res 928 336 R90
WINDOW 0 0 56 VBottom 2
WINDOW 3 32 56 VTop 2
SYMATTR InstName R14
SYMATTR Value 1k
SYMBOL res 928 432 R90
WINDOW 0 0 56 VBottom 2
WINDOW 3 32 56 VTop 2
SYMATTR InstName R15
SYMATTR Value 1k
SYMBOL res 960 496 R0
SYMATTR InstName R16
SYMATTR Value 1k
SYMBOL res 1104 224 R90
WINDOW 0 0 56 VBottom 2
WINDOW 3 32 56 VTop 2
SYMATTR InstName R17
SYMATTR Value 1k
SYMBOL Opamps\\LT1351 640 352 R0
SYMATTR InstName U6
SYMBOL Opamps\\LT1351 640 576 R0
SYMATTR InstName U7
SYMBOL Opamps\\LT1351 1056 400 R0
SYMATTR InstName U8
SYMBOL res -528 1024 M270
WINDOW 0 32 56 VTop 2
WINDOW 3 0 56 VBottom 2
SYMATTR InstName R18
SYMATTR Value 10k
SYMBOL res -384 864 R90
WINDOW 0 0 56 VBottom 2
WINDOW 3 32 56 VTop 2
SYMATTR InstName R19
SYMATTR Value 10k
SYMBOL res -144 1008 R90
WINDOW 0 0 56 VBottom 2
WINDOW 3 32 56 VTop 2
SYMATTR InstName R20
SYMATTR Value 100k
SYMBOL res -16 864 R90
WINDOW 0 0 56 VBottom 2
WINDOW 3 32 56 VTop 2
SYMATTR InstName R21
SYMATTR Value 5Meg
SYMBOL res -144 672 R90
WINDOW 0 0 56 VBottom 2
WINDOW 3 32 56 VTop 2
SYMATTR InstName R22
SYMATTR Value 50k
SYMBOL res 224 1024 R90
WINDOW 0 0 56 VBottom 2
WINDOW 3 32 56 VTop 2
SYMATTR InstName R23
SYMATTR Value 200k
SYMBOL cap -48 768 R90
WINDOW 0 0 32 VBottom 2
WINDOW 3 32 32 VTop 2
SYMATTR InstName C4
SYMATTR Value 1n
SYMBOL cap 384 768 R90
WINDOW 0 0 32 VBottom 2
WINDOW 3 32 32 VTop 2
SYMATTR InstName C5
SYMATTR Value 1n
SYMBOL cap -32 1200 R90
WINDOW 0 0 32 VBottom 2
WINDOW 3 32 32 VTop 2
SYMATTR InstName C6
SYMATTR Value 1n
SYMBOL diode -624 1408 M90
WINDOW 0 0 32 VBottom 2
WINDOW 3 32 32 VTop 2
SYMATTR InstName D2
SYMATTR Value D1N4001
SYMBOL Opamps\\LT1351 -384 1024 R0
SYMATTR InstName U9
SYMBOL Opamps\\LT1351 -32 1040 R0
SYMATTR InstName U10
SYMBOL Opamps\\LT1351 352 1056 R0
SYMATTR InstName U11
SYMBOL Opamps\\LT1351 -384 1440 R0
SYMATTR InstName U12
SYMBOL Opamps\\LT1351 -32 1456 R0
WINDOW 3 29 43 Left 2
SYMATTR InstName U13
SYMBOL res 352 864 R90
WINDOW 0 0 56 VBottom 2
WINDOW 3 32 56 VTop 2
SYMATTR InstName R24
SYMATTR Value 2Meg
SYMBOL res -400 1232 R90
WINDOW 0 0 56 VBottom 2
WINDOW 3 32 56 VTop 2
SYMATTR InstName R25
SYMATTR Value 74.9k
SYMBOL res -144 1424 R90
WINDOW 0 0 56 VBottom 2
WINDOW 3 32 56 VTop 2
SYMATTR InstName R27
SYMATTR Value 100k
SYMBOL res -16 1296 R90
WINDOW 0 0 56 VBottom 2
WINDOW 3 32 56 VTop 2
SYMATTR InstName R28
SYMATTR Value 100k
SYMBOL res 224 1440 R90
WINDOW 0 0 56 VBottom 2
WINDOW 3 32 56 VTop 2
SYMATTR InstName R29
SYMATTR Value 100k
SYMBOL res -688 1248 M180
WINDOW 0 36 76 Left 2
WINDOW 3 36 40 Left 2
SYMATTR InstName R30
SYMATTR Value 10k
SYMBOL res -688 1632 M180
WINDOW 0 36 76 Left 2
WINDOW 3 36 40 Left 2
SYMATTR InstName R31
SYMATTR Value 68k
SYMBOL res -288 1232 R90
WINDOW 0 0 56 VBottom 2
WINDOW 3 32 56 VTop 2
SYMATTR InstName R26
SYMATTR Value 75.1k
TEXT 976 -120 Left 2 !.model D1N4001 D IS=403E-12 RS=73.5E-3 N=1.57 CJO=52.8P VJ=0.627\n+M=0.272 BV=50 IBV=10U TT=5.05E-6
TEXT 976 16 Left 2 !.tran 0 100m 0 10u
TEXT 1376 376 Left 2 ;log10(abs(V(Output))/2)/(1000*log10(2))
TEXT 1376 424 Left 2 ;ln(abs(V(Output))/2)/1000
TEXT 976 -32 Left 2 ;.tran 0 1 0 1u
TEXT 976 64 Left 2 !.ic  V(x1)=-1.5765196mV V(x2)=-1.5765196mV V(y1)=3.4585271mV V(y2)=3.4585271mV V(z1)=-590.70514uV V(z2)=-590.70514uV
