Version 4
SHEET 1 6596 756
WIRE 320 -592 320 -608
WIRE 432 -576 336 -576
WIRE 32 -560 -240 -560
WIRE 80 -560 32 -560
WIRE 272 -560 160 -560
WIRE 368 -544 336 -544
WIRE 320 -512 320 -528
WIRE -240 -464 -240 -560
WIRE -208 -464 -240 -464
WIRE 0 -464 -144 -464
WIRE 560 -464 560 -528
WIRE 704 -464 704 -528
WIRE 32 -448 32 -560
WIRE 144 -448 32 -448
WIRE 368 -448 368 -544
WIRE 368 -448 224 -448
WIRE -128 -384 -128 -400
WIRE -240 -368 -240 -464
WIRE -144 -368 -240 -368
WIRE 0 -352 0 -464
WIRE 0 -352 -80 -352
WIRE 16 -352 16 -368
WIRE 16 -352 0 -352
WIRE 48 -352 16 -352
WIRE 176 -352 128 -352
WIRE 240 -352 176 -352
WIRE 368 -352 368 -448
WIRE 368 -352 320 -352
WIRE 384 -352 384 -368
WIRE 384 -352 368 -352
WIRE 496 -352 384 -352
WIRE 560 -352 560 -384
WIRE 704 -352 704 -384
WIRE -144 -336 -240 -336
WIRE 176 -336 176 -352
WIRE 368 -336 368 -352
WIRE -128 -304 -128 -320
WIRE 736 -288 576 -288
WIRE 1008 -288 976 -288
WIRE 1152 -288 1088 -288
WIRE -240 -240 -240 -336
WIRE 176 -240 176 -272
WIRE 176 -240 -240 -240
WIRE 368 -240 368 -272
WIRE 368 -240 176 -240
WIRE 432 -240 432 -576
WIRE 432 -240 368 -240
WIRE -240 -224 -240 -240
WIRE 624 -208 624 -224
WIRE 576 -192 576 -288
WIRE 608 -192 576 -192
WIRE 736 -176 736 -288
WIRE 736 -176 672 -176
WIRE 832 -176 736 -176
WIRE 976 -176 976 -288
WIRE 976 -176 912 -176
WIRE 496 -160 496 -352
WIRE 608 -160 496 -160
WIRE 1040 -160 1040 -176
WIRE 976 -144 976 -176
WIRE 1024 -144 976 -144
WIRE 624 -128 624 -144
WIRE 1152 -128 1152 -288
WIRE 1152 -128 1088 -128
WIRE 1232 -128 1152 -128
WIRE 1024 -112 976 -112
WIRE 832 -80 800 -80
WIRE 976 -80 976 -112
WIRE 976 -80 912 -80
WIRE 1040 -80 1040 -96
WIRE 736 -64 576 -64
WIRE 976 -16 976 -80
WIRE 320 16 320 0
WIRE 624 16 624 0
WIRE 432 32 336 32
WIRE 576 32 576 -64
WIRE 608 32 576 32
WIRE 32 48 -240 48
WIRE 80 48 32 48
WIRE 272 48 160 48
WIRE 736 48 736 -64
WIRE 736 48 672 48
WIRE 800 48 800 -80
WIRE 800 48 736 48
WIRE 368 64 336 64
WIRE 608 64 496 64
WIRE 320 96 320 80
WIRE 624 96 624 80
WIRE 976 112 976 64
WIRE -240 144 -240 48
WIRE -208 144 -240 144
WIRE 0 144 -144 144
WIRE 32 160 32 48
WIRE 96 160 32 160
WIRE 192 160 176 160
WIRE 368 160 368 64
WIRE 368 160 272 160
WIRE -128 224 -128 208
WIRE -240 240 -240 144
WIRE -144 240 -240 240
WIRE 0 256 0 144
WIRE 0 256 -80 256
WIRE 16 256 16 240
WIRE 16 256 0 256
WIRE 48 256 16 256
WIRE 176 256 128 256
WIRE 240 256 176 256
WIRE 368 256 368 160
WIRE 368 256 320 256
WIRE 384 256 384 240
WIRE 384 256 368 256
WIRE 496 256 496 64
WIRE 496 256 384 256
WIRE -144 272 -240 272
WIRE 176 272 176 256
WIRE 368 272 368 256
WIRE -128 304 -128 288
WIRE -240 368 -240 272
WIRE 176 368 176 336
WIRE 176 368 -240 368
WIRE 368 368 368 336
WIRE 368 368 176 368
WIRE 432 368 432 32
WIRE 432 368 368 368
WIRE -240 384 -240 368
FLAG 560 -352 0
FLAG 704 -352 0
FLAG 560 -528 Vee
FLAG 704 -528 Vcc
FLAG -128 -304 Vee
FLAG 320 -608 Vee
FLAG -128 -400 Vcc
FLAG 320 -512 Vcc
FLAG -240 -224 0
FLAG -128 304 Vee
FLAG 320 0 Vee
FLAG -128 208 Vcc
FLAG 320 96 Vcc
FLAG -240 384 0
FLAG 624 -128 Vee
FLAG 624 96 Vee
FLAG 1040 -80 Vee
FLAG 624 -224 Vcc
FLAG 624 0 Vcc
FLAG 1040 -176 Vcc
FLAG 976 112 0
FLAG 1232 -128 Output
IOPIN 1232 -128 Out
FLAG 384 -368 x1
FLAG 176 -352 y1
FLAG 16 -368 z1
FLAG 384 240 x2
FLAG 176 256 y2
FLAG 16 240 z2
SYMBOL voltage 560 -480 R0
WINDOW 123 0 0 Left 0
WINDOW 39 0 0 Left 0
SYMATTR InstName V1
SYMATTR Value -12
SYMBOL voltage 704 -480 R0
WINDOW 123 0 0 Left 0
WINDOW 39 0 0 Left 0
SYMATTR InstName V2
SYMATTR Value 12
SYMBOL res 144 -368 R90
WINDOW 0 0 56 VBottom 2
WINDOW 3 32 56 VTop 2
SYMATTR InstName R1
SYMATTR Value 47k
SYMBOL res 336 -368 R90
WINDOW 0 0 56 VBottom 2
WINDOW 3 32 56 VTop 2
SYMATTR InstName R2
SYMATTR Value 47k
SYMBOL res 240 -464 R90
WINDOW 0 0 56 VBottom 2
WINDOW 3 32 56 VTop 2
SYMATTR InstName R3
SYMATTR Value 49.8k
SYMBOL res 176 -576 R90
WINDOW 0 0 56 VBottom 2
WINDOW 3 32 56 VTop 2
SYMATTR InstName R4
SYMATTR Value 1Meg
SYMBOL cap -144 -480 R90
WINDOW 0 0 32 VBottom 2
WINDOW 3 32 32 VTop 2
SYMATTR InstName C1
SYMATTR Value 1n
SYMBOL cap 160 -336 R0
SYMATTR InstName C2
SYMATTR Value 10n
SYMBOL cap 352 -336 R0
SYMATTR InstName C3
SYMATTR Value 20n
SYMBOL res 144 240 R90
WINDOW 0 0 56 VBottom 2
WINDOW 3 32 56 VTop 2
SYMATTR InstName R5
SYMATTR Value 47k
SYMBOL res 336 240 R90
WINDOW 0 0 56 VBottom 2
WINDOW 3 32 56 VTop 2
SYMATTR InstName R6
SYMATTR Value 47k
SYMBOL res 192 144 R90
WINDOW 0 0 56 VBottom 2
WINDOW 3 32 56 VTop 2
SYMATTR InstName R7
SYMATTR Value 47k
SYMBOL res 176 32 R90
WINDOW 0 0 56 VBottom 2
WINDOW 3 32 56 VTop 2
SYMATTR InstName R8
SYMATTR Value 1Meg
SYMBOL cap -144 128 R90
WINDOW 0 0 32 VBottom 2
WINDOW 3 32 32 VTop 2
SYMATTR InstName C4
SYMATTR Value 1n
SYMBOL cap 160 272 R0
SYMATTR InstName C5
SYMATTR Value 10n
SYMBOL cap 352 272 R0
SYMATTR InstName C6
SYMATTR Value 20n
SYMBOL res 928 -192 R90
WINDOW 0 0 56 VBottom 2
WINDOW 3 32 56 VTop 2
SYMATTR InstName R10
SYMATTR Value 1k
SYMBOL res 928 -96 R90
WINDOW 0 0 56 VBottom 2
WINDOW 3 32 56 VTop 2
SYMATTR InstName R11
SYMATTR Value 1k
SYMBOL res 960 -32 R0
SYMATTR InstName R12
SYMATTR Value 1k
SYMBOL res 1104 -304 R90
WINDOW 0 0 56 VBottom 2
WINDOW 3 32 56 VTop 2
SYMATTR InstName R13
SYMATTR Value 1k
SYMBOL Opamps\\LT1351 -112 -352 R0
SYMATTR InstName U1
SYMBOL Opamps\\LT1351 -112 256 R0
SYMATTR InstName U3
SYMBOL Opamps\\LT1351 640 -176 R0
SYMATTR InstName U5
SYMBOL Opamps\\LT1351 640 48 R0
SYMATTR InstName U6
SYMBOL Opamps\\LT1351 1056 -128 R0
SYMATTR InstName U7
SYMBOL Opamps\\LT1351 304 -560 R180
SYMATTR InstName U2
SYMBOL Opamps\\LT1351 304 48 R180
SYMATTR InstName U4
SYMBOL res 288 144 R90
WINDOW 0 0 56 VBottom 2
WINDOW 3 32 56 VTop 2
SYMATTR InstName R9
SYMATTR Value 2.8k
TEXT 840 -440 Left 2 !.tran 0 200m 0 0.1u
TEXT 1344 -144 Left 2 ;log10(abs(V(Output))/2)/(1000*log10(2))
TEXT 1344 -104 Left 2 ;ln(abs(V(Output))/2)/1000
TEXT 840 -472 Left 2 ;.tran 0 1 0 1u
TEXT 840 -400 Left 2 !.ic  V(x1)=-126.2131nV V(x2)=-126.2131nV V(y1)=996.1779uV V(y2)=996.1779uV V(z1)=1.992482mV V(z2)=1.992482mV
