Version 4
SHEET 1 6680 2732
WIRE -2672 -496 -2720 -496
WIRE -2608 -496 -2672 -496
WIRE -2448 -496 -2528 -496
WIRE -1792 -496 -2240 -496
WIRE -2448 -432 -2448 -496
WIRE -2416 -432 -2448 -432
WIRE -2272 -432 -2352 -432
WIRE -2032 -416 -2064 -416
WIRE -1888 -416 -1952 -416
WIRE -2608 -400 -2688 -400
WIRE -2448 -400 -2448 -432
WIRE -2448 -400 -2528 -400
WIRE -2384 -320 -2384 -336
WIRE -2384 -320 -2400 -320
WIRE -2608 -304 -2704 -304
WIRE -2448 -304 -2448 -400
WIRE -2448 -304 -2528 -304
WIRE -2416 -304 -2448 -304
WIRE -2000 -304 -2000 -320
WIRE -2000 -304 -2016 -304
WIRE -2272 -288 -2272 -432
WIRE -2272 -288 -2352 -288
WIRE -2256 -288 -2256 -304
WIRE -2256 -288 -2272 -288
WIRE -2240 -288 -2240 -496
WIRE -2240 -288 -2256 -288
WIRE -2224 -288 -2240 -288
WIRE -2064 -288 -2064 -416
WIRE -2064 -288 -2144 -288
WIRE -2032 -288 -2064 -288
WIRE -2416 -272 -2448 -272
WIRE -1888 -272 -1888 -416
WIRE -1888 -272 -1968 -272
WIRE -1840 -272 -1888 -272
WIRE -2448 -256 -2448 -272
WIRE -2384 -256 -2400 -256
WIRE -2032 -256 -2064 -256
WIRE -2384 -240 -2384 -256
WIRE -2064 -240 -2064 -256
WIRE -2000 -240 -2016 -240
WIRE -2000 -224 -2000 -240
WIRE -1632 -176 -1632 -240
WIRE -1488 -176 -1488 -240
WIRE -1840 -160 -1840 -272
WIRE -1840 -160 -2656 -160
WIRE -2416 -96 -2448 -96
WIRE -2272 -96 -2352 -96
WIRE -2032 -80 -2064 -80
WIRE -1888 -80 -1952 -80
WIRE -1632 -64 -1632 -96
WIRE -1488 -64 -1488 -96
WIRE -2384 16 -2384 0
WIRE -2384 16 -2400 16
WIRE -2656 32 -2656 -160
WIRE -2592 32 -2656 32
WIRE -2448 32 -2448 -96
WIRE -2448 32 -2512 32
WIRE -2416 32 -2448 32
WIRE -2000 32 -2000 16
WIRE -2000 32 -2016 32
WIRE -2272 48 -2272 -96
WIRE -2272 48 -2352 48
WIRE -2256 48 -2256 32
WIRE -2256 48 -2272 48
WIRE -2224 48 -2256 48
WIRE -2064 48 -2064 -80
WIRE -2064 48 -2144 48
WIRE -2032 48 -2064 48
WIRE -2416 64 -2448 64
WIRE -1888 64 -1888 -80
WIRE -1888 64 -1968 64
WIRE -1840 64 -1888 64
WIRE -2448 80 -2448 64
WIRE -2384 80 -2400 80
WIRE -2032 80 -2064 80
WIRE -2384 96 -2384 80
WIRE -2064 96 -2064 80
WIRE -2000 96 -2016 96
WIRE -2000 112 -2000 96
WIRE -2672 176 -2672 -496
WIRE -2272 176 -2272 48
WIRE -2272 176 -2672 176
WIRE -1840 208 -1840 64
WIRE -1840 208 -2672 208
WIRE -2672 272 -2672 208
WIRE -2608 272 -2672 272
WIRE -2448 272 -2528 272
WIRE -2448 336 -2448 272
WIRE -2416 336 -2448 336
WIRE -2272 336 -2352 336
WIRE -2032 352 -2064 352
WIRE -1888 352 -1968 352
WIRE -2608 368 -2736 368
WIRE -2448 368 -2448 336
WIRE -2448 368 -2528 368
WIRE -2384 448 -2384 432
WIRE -2384 448 -2400 448
WIRE -2608 464 -2656 464
WIRE -2448 464 -2448 368
WIRE -2448 464 -2528 464
WIRE -2416 464 -2448 464
WIRE -2000 464 -2000 448
WIRE -2000 464 -2016 464
WIRE -2272 480 -2272 336
WIRE -2272 480 -2352 480
WIRE -2256 480 -2256 464
WIRE -2256 480 -2272 480
WIRE -2208 480 -2256 480
WIRE -2064 480 -2064 352
WIRE -2064 480 -2128 480
WIRE -2032 480 -2064 480
WIRE -2416 496 -2448 496
WIRE -1888 496 -1888 352
WIRE -1888 496 -1968 496
WIRE -1872 496 -1872 480
WIRE -1872 496 -1888 496
WIRE -1840 496 -1872 496
WIRE -2448 512 -2448 496
WIRE -2384 512 -2400 512
WIRE -2032 512 -2064 512
WIRE -2384 528 -2384 512
WIRE -2064 528 -2064 512
WIRE -2000 528 -2016 528
WIRE -2000 544 -2000 528
WIRE -2688 640 -2688 -400
WIRE -2656 640 -2656 464
WIRE -2656 640 -2688 640
WIRE -2272 640 -2272 480
WIRE -2272 640 -2656 640
WIRE -2704 672 -2704 -304
WIRE -1840 672 -1840 496
WIRE -1840 672 -2704 672
WIRE -2032 752 -2064 752
WIRE -1888 752 -1952 752
WIRE -2384 848 -2384 832
WIRE -2384 848 -2400 848
WIRE -2720 864 -2720 -496
WIRE -2416 864 -2720 864
WIRE -2000 864 -2000 848
WIRE -2000 864 -2016 864
WIRE -2272 880 -2352 880
WIRE -2064 880 -2064 752
WIRE -2064 880 -2192 880
WIRE -2032 880 -2064 880
WIRE -2416 896 -2448 896
WIRE -1888 896 -1888 752
WIRE -1888 896 -1968 896
WIRE -1840 896 -1888 896
WIRE -2448 912 -2448 896
WIRE -2384 912 -2400 912
WIRE -2032 912 -2064 912
WIRE -2384 928 -2384 912
WIRE -2064 928 -2064 912
WIRE -2000 928 -2016 928
WIRE -2000 944 -2000 928
WIRE -1472 976 -1632 976
WIRE -1200 976 -1232 976
WIRE -1056 976 -1120 976
WIRE -2736 1008 -2736 368
WIRE -1840 1008 -1840 896
WIRE -1840 1008 -2736 1008
WIRE -1584 1056 -1584 1040
WIRE -1632 1072 -1632 976
WIRE -1600 1072 -1632 1072
WIRE -1472 1088 -1472 976
WIRE -1472 1088 -1536 1088
WIRE -1376 1088 -1472 1088
WIRE -1232 1088 -1232 976
WIRE -1232 1088 -1296 1088
WIRE -1792 1104 -1792 -496
WIRE -1600 1104 -1792 1104
WIRE -1168 1104 -1168 1088
WIRE -1232 1120 -1232 1088
WIRE -1184 1120 -1232 1120
WIRE -1584 1136 -1584 1120
WIRE -1056 1136 -1056 976
WIRE -1056 1136 -1120 1136
WIRE -976 1136 -1056 1136
WIRE -1184 1152 -1232 1152
WIRE -2688 1184 -2736 1184
WIRE -2624 1184 -2688 1184
WIRE -2464 1184 -2544 1184
WIRE -1792 1184 -2256 1184
WIRE -1376 1184 -1408 1184
WIRE -1232 1184 -1232 1152
WIRE -1232 1184 -1296 1184
WIRE -1168 1184 -1168 1168
WIRE -1472 1200 -1632 1200
WIRE -2464 1248 -2464 1184
WIRE -2432 1248 -2464 1248
WIRE -2288 1248 -2368 1248
WIRE -1232 1248 -1232 1184
WIRE -2048 1264 -2080 1264
WIRE -1904 1264 -1968 1264
WIRE -2624 1280 -2704 1280
WIRE -2464 1280 -2464 1248
WIRE -2464 1280 -2544 1280
WIRE -1584 1280 -1584 1264
WIRE -1632 1296 -1632 1200
WIRE -1600 1296 -1632 1296
WIRE -1472 1312 -1472 1200
WIRE -1472 1312 -1536 1312
WIRE -1408 1312 -1408 1184
WIRE -1408 1312 -1472 1312
WIRE -1792 1328 -1792 1184
WIRE -1600 1328 -1792 1328
WIRE -2400 1360 -2400 1344
WIRE -2400 1360 -2416 1360
WIRE -1584 1360 -1584 1344
WIRE -2624 1376 -2720 1376
WIRE -2464 1376 -2464 1280
WIRE -2464 1376 -2544 1376
WIRE -2432 1376 -2464 1376
WIRE -2016 1376 -2016 1360
WIRE -2016 1376 -2032 1376
WIRE -1232 1376 -1232 1328
WIRE -2288 1392 -2288 1248
WIRE -2288 1392 -2368 1392
WIRE -2272 1392 -2272 1376
WIRE -2272 1392 -2288 1392
WIRE -2256 1392 -2256 1184
WIRE -2256 1392 -2272 1392
WIRE -2240 1392 -2256 1392
WIRE -2080 1392 -2080 1264
WIRE -2080 1392 -2160 1392
WIRE -2048 1392 -2080 1392
WIRE -2432 1408 -2464 1408
WIRE -1904 1408 -1904 1264
WIRE -1904 1408 -1984 1408
WIRE -1856 1408 -1904 1408
WIRE -2464 1424 -2464 1408
WIRE -2400 1424 -2416 1424
WIRE -2048 1424 -2080 1424
WIRE -2400 1440 -2400 1424
WIRE -2080 1440 -2080 1424
WIRE -2016 1440 -2032 1440
WIRE -2016 1456 -2016 1440
WIRE -1856 1520 -1856 1408
WIRE -1856 1520 -2672 1520
WIRE -2432 1584 -2464 1584
WIRE -2288 1584 -2368 1584
WIRE -2048 1600 -2080 1600
WIRE -1904 1600 -1968 1600
WIRE -2400 1696 -2400 1680
WIRE -2400 1696 -2416 1696
WIRE -2672 1712 -2672 1520
WIRE -2608 1712 -2672 1712
WIRE -2464 1712 -2464 1584
WIRE -2464 1712 -2528 1712
WIRE -2432 1712 -2464 1712
WIRE -2016 1712 -2016 1696
WIRE -2016 1712 -2032 1712
WIRE -2288 1728 -2288 1584
WIRE -2288 1728 -2368 1728
WIRE -2272 1728 -2272 1712
WIRE -2272 1728 -2288 1728
WIRE -2240 1728 -2272 1728
WIRE -2080 1728 -2080 1600
WIRE -2080 1728 -2160 1728
WIRE -2048 1728 -2080 1728
WIRE -2432 1744 -2464 1744
WIRE -1904 1744 -1904 1600
WIRE -1904 1744 -1984 1744
WIRE -1856 1744 -1904 1744
WIRE -2464 1760 -2464 1744
WIRE -2400 1760 -2416 1760
WIRE -2048 1760 -2080 1760
WIRE -2400 1776 -2400 1760
WIRE -2080 1776 -2080 1760
WIRE -2016 1776 -2032 1776
WIRE -2016 1792 -2016 1776
WIRE -2688 1856 -2688 1184
WIRE -2288 1856 -2288 1728
WIRE -2288 1856 -2688 1856
WIRE -1856 1888 -1856 1744
WIRE -1856 1888 -2688 1888
WIRE -2688 1952 -2688 1888
WIRE -2624 1952 -2688 1952
WIRE -2464 1952 -2544 1952
WIRE -2464 2016 -2464 1952
WIRE -2432 2016 -2464 2016
WIRE -2288 2016 -2368 2016
WIRE -2048 2032 -2080 2032
WIRE -1904 2032 -1984 2032
WIRE -2624 2048 -2752 2048
WIRE -2464 2048 -2464 2016
WIRE -2464 2048 -2544 2048
WIRE -2400 2128 -2400 2112
WIRE -2400 2128 -2416 2128
WIRE -2624 2144 -2672 2144
WIRE -2464 2144 -2464 2048
WIRE -2464 2144 -2544 2144
WIRE -2432 2144 -2464 2144
WIRE -2016 2144 -2016 2128
WIRE -2016 2144 -2032 2144
WIRE -2288 2160 -2288 2016
WIRE -2288 2160 -2368 2160
WIRE -2272 2160 -2272 2144
WIRE -2272 2160 -2288 2160
WIRE -2224 2160 -2272 2160
WIRE -2080 2160 -2080 2032
WIRE -2080 2160 -2144 2160
WIRE -2048 2160 -2080 2160
WIRE -2432 2176 -2464 2176
WIRE -1904 2176 -1904 2032
WIRE -1904 2176 -1984 2176
WIRE -1888 2176 -1888 2160
WIRE -1888 2176 -1904 2176
WIRE -1856 2176 -1888 2176
WIRE -2464 2192 -2464 2176
WIRE -2400 2192 -2416 2192
WIRE -2048 2192 -2080 2192
WIRE -2400 2208 -2400 2192
WIRE -2080 2208 -2080 2192
WIRE -2016 2208 -2032 2208
WIRE -2016 2224 -2016 2208
WIRE -2704 2320 -2704 1280
WIRE -2672 2320 -2672 2144
WIRE -2672 2320 -2704 2320
WIRE -2288 2320 -2288 2160
WIRE -2288 2320 -2672 2320
WIRE -2720 2336 -2720 1376
WIRE -1856 2336 -1856 2176
WIRE -1856 2336 -2720 2336
WIRE -2064 2416 -2080 2416
WIRE -1968 2416 -1984 2416
WIRE -1856 2416 -1888 2416
WIRE -2400 2528 -2400 2512
WIRE -2400 2528 -2416 2528
WIRE -2736 2544 -2736 1184
WIRE -2432 2544 -2736 2544
WIRE -2016 2544 -2016 2528
WIRE -2016 2544 -2032 2544
WIRE -2288 2560 -2368 2560
WIRE -2080 2560 -2080 2416
WIRE -2080 2560 -2208 2560
WIRE -2048 2560 -2080 2560
WIRE -2432 2576 -2464 2576
WIRE -1856 2576 -1856 2416
WIRE -1856 2576 -1984 2576
WIRE -2464 2592 -2464 2576
WIRE -2400 2592 -2416 2592
WIRE -2048 2592 -2080 2592
WIRE -2400 2608 -2400 2592
WIRE -2080 2608 -2080 2592
WIRE -2016 2608 -2032 2608
WIRE -2016 2624 -2016 2608
WIRE -2752 2688 -2752 2048
WIRE -1856 2688 -1856 2576
WIRE -1856 2688 -2752 2688
FLAG -2384 -336 Vcc
FLAG -2000 -320 Vcc
FLAG -2384 0 Vcc
FLAG -2000 -224 Vee
FLAG -2384 96 Vee
FLAG -2384 -240 Vee
FLAG -2448 80 0
FLAG -1632 -64 0
FLAG -1488 -64 0
FLAG -1632 -240 Vee
FLAG -1488 -240 Vcc
FLAG -2448 -256 0
FLAG -2064 -240 0
FLAG -2000 16 Vcc
FLAG -2000 112 Vee
FLAG -2064 96 0
FLAG -2384 432 Vcc
FLAG -2384 528 Vee
FLAG -2448 512 0
FLAG -2000 448 Vcc
FLAG -2000 544 Vee
FLAG -2064 528 0
FLAG -2384 832 Vcc
FLAG -2384 928 Vee
FLAG -2448 912 0
FLAG -2000 848 Vcc
FLAG -2000 944 Vee
FLAG -2064 928 0
FLAG -2256 -304 x1
FLAG -2256 32 y1
FLAG -2256 464 z1
FLAG -1872 480 w1
FLAG -2400 1344 Vcc
FLAG -2016 1360 Vcc
FLAG -2400 1680 Vcc
FLAG -2016 1456 Vee
FLAG -2400 1776 Vee
FLAG -2400 1440 Vee
FLAG -2464 1760 0
FLAG -2464 1424 0
FLAG -2080 1440 0
FLAG -2016 1696 Vcc
FLAG -2016 1792 Vee
FLAG -2080 1776 0
FLAG -2400 2112 Vcc
FLAG -2400 2208 Vee
FLAG -2464 2192 0
FLAG -2016 2128 Vcc
FLAG -2016 2224 Vee
FLAG -2080 2208 0
FLAG -2400 2512 Vcc
FLAG -2400 2608 Vee
FLAG -2464 2592 0
FLAG -2016 2528 Vcc
FLAG -2016 2624 Vee
FLAG -2080 2608 0
FLAG -2272 1376 x2
FLAG -2272 1712 y2
FLAG -2272 2144 z2
FLAG -1888 2160 w2
FLAG -1584 1136 Vee
FLAG -1584 1360 Vee
FLAG -1168 1184 Vee
FLAG -1584 1040 Vcc
FLAG -1584 1264 Vcc
FLAG -1168 1088 Vcc
FLAG -1232 1376 0
FLAG -976 1136 Output
IOPIN -976 1136 Out
SYMBOL res -2512 -480 M270
WINDOW 0 32 56 VTop 2
WINDOW 3 0 56 VBottom 2
SYMATTR InstName R1
SYMATTR Value 100k
SYMBOL res -2512 -416 R90
WINDOW 0 0 56 VBottom 2
WINDOW 3 32 56 VTop 2
SYMATTR InstName R2
SYMATTR Value 100k
SYMBOL res -2512 -320 R90
WINDOW 0 0 56 VBottom 2
WINDOW 3 32 56 VTop 2
SYMATTR InstName R3
SYMATTR Value 100k
SYMBOL res -2128 -304 R90
WINDOW 0 0 56 VBottom 2
WINDOW 3 32 56 VTop 2
SYMATTR InstName R4
SYMATTR Value 100k
SYMBOL res -1936 -432 R90
WINDOW 0 0 56 VBottom 2
WINDOW 3 32 56 VTop 2
SYMATTR InstName R5
SYMATTR Value 100k
SYMBOL res -2496 16 R90
WINDOW 0 0 56 VBottom 2
WINDOW 3 32 56 VTop 2
SYMATTR InstName R6
SYMATTR Value 100k
SYMBOL cap -2352 -448 R90
WINDOW 0 0 32 VBottom 2
WINDOW 3 32 32 VTop 2
SYMATTR InstName C1
SYMATTR Value 1n
SYMBOL cap -2352 -112 R90
WINDOW 0 0 32 VBottom 2
WINDOW 3 32 32 VTop 2
SYMATTR InstName C2
SYMATTR Value 1n
SYMBOL voltage -1632 -192 R0
WINDOW 123 0 0 Left 0
WINDOW 39 0 0 Left 0
SYMATTR InstName V1
SYMATTR Value -15
SYMBOL voltage -1488 -192 R0
WINDOW 123 0 0 Left 0
WINDOW 39 0 0 Left 0
SYMATTR InstName V2
SYMATTR Value 15
SYMBOL res -2128 32 R90
WINDOW 0 0 56 VBottom 2
WINDOW 3 32 56 VTop 2
SYMATTR InstName R7
SYMATTR Value 100k
SYMBOL res -1936 -96 R90
WINDOW 0 0 56 VBottom 2
WINDOW 3 32 56 VTop 2
SYMATTR InstName R8
SYMATTR Value 100k
SYMBOL res -2512 288 M270
WINDOW 0 32 56 VTop 2
WINDOW 3 0 56 VBottom 2
SYMATTR InstName R9
SYMATTR Value 200k
SYMBOL res -2512 352 R90
WINDOW 0 0 56 VBottom 2
WINDOW 3 32 56 VTop 2
SYMATTR InstName R10
SYMATTR Value 200k
SYMBOL res -2512 448 R90
WINDOW 0 0 56 VBottom 2
WINDOW 3 32 56 VTop 2
SYMATTR InstName R11
SYMATTR Value 200k
SYMBOL cap -2352 320 R90
WINDOW 0 0 32 VBottom 2
WINDOW 3 32 32 VTop 2
SYMATTR InstName C3
SYMATTR Value 1n
SYMBOL res -2112 464 R90
WINDOW 0 0 56 VBottom 2
WINDOW 3 32 56 VTop 2
SYMATTR InstName R12
SYMATTR Value 5000k
SYMBOL cap -1968 336 R90
WINDOW 0 0 32 VBottom 2
WINDOW 3 32 32 VTop 2
SYMATTR InstName C4
SYMATTR Value 1n
SYMBOL res -2176 864 R90
WINDOW 0 0 56 VBottom 2
WINDOW 3 32 56 VTop 2
SYMATTR InstName R13
SYMATTR Value 1k
SYMBOL res -1936 736 R90
WINDOW 0 0 56 VBottom 2
WINDOW 3 32 56 VTop 2
SYMATTR InstName R14
SYMATTR Value 1k
SYMBOL Opamps\\LT1351 -2384 -288 R0
SYMATTR InstName U1
SYMBOL Opamps\\LT1351 -2000 -272 R0
SYMATTR InstName U2
SYMBOL Opamps\\LT1351 -2384 48 R0
SYMATTR InstName U3
SYMBOL Opamps\\LT1351 -2000 64 R0
SYMATTR InstName U4
SYMBOL Opamps\\LT1351 -2384 480 R0
SYMATTR InstName U5
SYMBOL Opamps\\LT1351 -2000 496 R0
SYMATTR InstName U6
SYMBOL Opamps\\LT1351 -2384 880 R0
SYMATTR InstName U7
SYMBOL Opamps\\LT1351 -2000 896 R0
SYMATTR InstName U8
SYMBOL res -2528 1200 M270
WINDOW 0 32 56 VTop 2
WINDOW 3 0 56 VBottom 2
SYMATTR InstName R15
SYMATTR Value 100k
SYMBOL res -2528 1264 R90
WINDOW 0 0 56 VBottom 2
WINDOW 3 32 56 VTop 2
SYMATTR InstName R16
SYMATTR Value 100k
SYMBOL res -2528 1360 R90
WINDOW 0 0 56 VBottom 2
WINDOW 3 32 56 VTop 2
SYMATTR InstName R17
SYMATTR Value 100k
SYMBOL res -2144 1376 R90
WINDOW 0 0 56 VBottom 2
WINDOW 3 32 56 VTop 2
SYMATTR InstName R18
SYMATTR Value 100k
SYMBOL res -1952 1248 R90
WINDOW 0 0 56 VBottom 2
WINDOW 3 32 56 VTop 2
SYMATTR InstName R19
SYMATTR Value 100k
SYMBOL res -2512 1696 R90
WINDOW 0 0 56 VBottom 2
WINDOW 3 32 56 VTop 2
SYMATTR InstName R20
SYMATTR Value 100k
SYMBOL cap -2368 1232 R90
WINDOW 0 0 32 VBottom 2
WINDOW 3 32 32 VTop 2
SYMATTR InstName C5
SYMATTR Value 1n
SYMBOL cap -2368 1568 R90
WINDOW 0 0 32 VBottom 2
WINDOW 3 32 32 VTop 2
SYMATTR InstName C6
SYMATTR Value 1n
SYMBOL res -2144 1712 R90
WINDOW 0 0 56 VBottom 2
WINDOW 3 32 56 VTop 2
SYMATTR InstName R21
SYMATTR Value 100k
SYMBOL res -1952 1584 R90
WINDOW 0 0 56 VBottom 2
WINDOW 3 32 56 VTop 2
SYMATTR InstName R22
SYMATTR Value 100k
SYMBOL res -2528 1968 M270
WINDOW 0 32 56 VTop 2
WINDOW 3 0 56 VBottom 2
SYMATTR InstName R23
SYMATTR Value 200k
SYMBOL res -2528 2032 R90
WINDOW 0 0 56 VBottom 2
WINDOW 3 32 56 VTop 2
SYMATTR InstName R24
SYMATTR Value 200k
SYMBOL res -2528 2128 R90
WINDOW 0 0 56 VBottom 2
WINDOW 3 32 56 VTop 2
SYMATTR InstName R25
SYMATTR Value 200k
SYMBOL cap -2368 2000 R90
WINDOW 0 0 32 VBottom 2
WINDOW 3 32 32 VTop 2
SYMATTR InstName C7
SYMATTR Value 1n
SYMBOL res -2128 2144 R90
WINDOW 0 0 56 VBottom 2
WINDOW 3 32 56 VTop 2
SYMATTR InstName R26
SYMATTR Value 5000k
SYMBOL cap -1984 2016 R90
WINDOW 0 0 32 VBottom 2
WINDOW 3 32 32 VTop 2
SYMATTR InstName C8
SYMATTR Value 1n
SYMBOL res -2192 2544 R90
WINDOW 0 0 56 VBottom 2
WINDOW 3 32 56 VTop 2
SYMATTR InstName R27
SYMATTR Value 1k
SYMBOL res -1968 2400 R90
WINDOW 0 0 56 VBottom 2
WINDOW 3 32 56 VTop 2
SYMATTR InstName R28
SYMATTR Value 0.3k
SYMBOL Opamps\\LT1351 -2400 1392 R0
SYMATTR InstName U9
SYMBOL Opamps\\LT1351 -2016 1408 R0
SYMATTR InstName U10
SYMBOL Opamps\\LT1351 -2400 1728 R0
SYMATTR InstName U11
SYMBOL Opamps\\LT1351 -2016 1744 R0
SYMATTR InstName U12
SYMBOL Opamps\\LT1351 -2400 2160 R0
SYMATTR InstName U13
SYMBOL Opamps\\LT1351 -2016 2176 R0
SYMATTR InstName U14
SYMBOL Opamps\\LT1351 -2400 2560 R0
SYMATTR InstName U15
SYMBOL Opamps\\LT1351 -2016 2576 R0
SYMATTR InstName U16
SYMBOL res -1280 1072 R90
WINDOW 0 0 56 VBottom 2
WINDOW 3 32 56 VTop 2
SYMATTR InstName R30
SYMATTR Value 1k
SYMBOL res -1280 1168 R90
WINDOW 0 0 56 VBottom 2
WINDOW 3 32 56 VTop 2
SYMATTR InstName R31
SYMATTR Value 1k
SYMBOL res -1248 1232 R0
SYMATTR InstName R32
SYMATTR Value 1k
SYMBOL res -1104 960 R90
WINDOW 0 0 56 VBottom 2
WINDOW 3 32 56 VTop 2
SYMATTR InstName R33
SYMATTR Value 1k
SYMBOL Opamps\\LT1351 -1568 1088 R0
SYMATTR InstName U17
SYMBOL Opamps\\LT1351 -1568 1312 R0
SYMATTR InstName U18
SYMBOL Opamps\\LT1351 -1152 1136 R0
SYMATTR InstName U19
SYMBOL res -1872 2400 R90
WINDOW 0 0 56 VBottom 2
WINDOW 3 32 56 VTop 2
SYMATTR InstName R29
SYMATTR Value 0.7k
TEXT -856 1112 Left 2 ;log10(abs(V(Output))/2)/(1000*log10(2))
TEXT -856 1160 Left 2 ;ln(abs(V(Output))/2)/1000
TEXT -1640 8 Left 2 ;.tran 0 100m 0 1u
TEXT -1640 88 Left 2 !.ic V(w1)=-51.94018mV V(w2)=-51.94018mV V(x1)=-25.340626nV V(x2)=-25.340626nV V(y1)=-670.19903nV V(y2)=-670.19903nV V(z1)=53.000852mV V(z2)=53.000852mV
TEXT -1640 48 Left 2 !.tran 0 22m 0 1u
